ProjectFiles/K1/DSSfiles/K1_EXP_POWERS.CSV
Element, Terminal, P(kW), Q(kvar),  P_Normal, Q_Normal, P_Emergency, Q_Emergency
"Line.BB_50011133"      ,   1,         4.1,         0.4,         0.0,         0.0,         0.0,         0.0
"Line.BB_50011133"      ,   2,        -4.1,        -0.4
"Line.BB_50015855"      ,   1,       -59.2,        15.6,         0.0,         0.0,         0.0,         0.0
"Line.BB_50015855"      ,   2,        59.2,       -15.6
"Line.BB_50026560"      ,   1,         7.6,         0.8,         0.0,         0.0,         0.0,         0.0
"Line.BB_50026560"      ,   2,        -7.6,        -0.8
"Line.BB_50026578"      ,   1,         5.4,         0.4,         0.0,         0.0,         0.0,         0.0
"Line.BB_50026578"      ,   2,        -5.4,        -0.4
"Line.BB_50149"         ,   1,       -20.5,        -2.0,         0.0,         0.0,         0.0,         0.0
"Line.BB_50149"         ,   2,        20.5,         2.0
"Line.BB_50167"         ,   1,        35.4,         3.4,         0.0,         0.0,         0.0,         0.0
"Line.BB_50167"         ,   2,       -35.4,        -3.4
"Line.BB_50212"         ,   1,         3.9,         0.4,         0.0,         0.0,         0.0,         0.0
"Line.BB_50212"         ,   2,        -3.9,        -0.4
"Line.BB_50263"         ,   1,         0.0,         0.0,         0.0,         0.0,         0.0,         0.0
"Line.BB_50263"         ,   2,        -0.0,        -0.0
"Line.BB_50266"         ,   1,        22.6,         1.6,         0.0,         0.0,         0.0,         0.0
"Line.BB_50266"         ,   2,       -22.6,        -1.6
"Line.BB_51048013"      ,   1,       132.3,        -5.2,         0.0,         0.0,         0.0,         0.0
"Line.BB_51048013"      ,   2,      -132.3,         5.2
"Line.BB_51066669"      ,   1,       -93.6,         8.9,         0.0,         0.0,         0.0,         0.0
"Line.BB_51066669"      ,   2,        93.6,        -8.9
"Line.BB_51066701"      ,   1,         8.2,         0.9,         0.0,         0.0,         0.0,         0.0
"Line.BB_51066701"      ,   2,        -8.2,        -0.9
"Line.BB_51071429"      ,   1,         0.0,         0.0,         0.0,         0.0,         0.0,         0.0
"Line.BB_51071429"      ,   2,        -0.0,        -0.0
"Line.BB_51091905"      ,   1,        69.8,       -11.3,         0.0,         0.0,         0.0,         0.0
"Line.BB_51091905"      ,   2,       -69.8,        11.3
"Line.BB_51121405"      ,   1,         5.5,         0.7,         0.0,         0.0,         0.0,         0.0
"Line.BB_51121405"      ,   2,        -5.5,        -0.7
"Line.BB_63397"         ,   1,         7.8,         0.6,         0.0,         0.0,         0.0,         0.0
"Line.BB_63397"         ,   2,        -7.8,        -0.6
"Line.BB_63401"         ,   1,         8.8,         0.6,         0.0,         0.0,         0.0,         0.0
"Line.BB_63401"         ,   2,        -8.8,        -0.6
"Line.BB_63544"         ,   1,        -0.0,         0.0,         0.0,         0.0,         0.0,         0.0
"Line.BB_63544"         ,   2,         0.0,        -0.0
"Line.BB_63825"         ,   1,        10.2,         0.7,         0.0,         0.0,         0.0,         0.0
"Line.BB_63825"         ,   2,       -10.2,        -0.7
"Line.BB_64040"         ,   1,        17.3,         1.8,         0.0,         0.0,         0.0,         0.0
"Line.BB_64040"         ,   2,       -17.3,        -1.8
"Line.BB_64049"         ,   1,       -20.8,        -1.5,         0.0,         0.0,         0.0,         0.0
"Line.BB_64049"         ,   2,        20.8,         1.5
"Line.BB_64055"         ,   1,         1.6,         0.1,         0.0,         0.0,         0.0,         0.0
"Line.BB_64055"         ,   2,        -1.6,        -0.1
"Line.BB_64059"         ,   1,        21.5,         1.5,         0.0,         0.0,         0.0,         0.0
"Line.BB_64059"         ,   2,       -21.5,        -1.5
"Line.BB_64159"         ,   1,         9.0,         0.7,         0.0,         0.0,         0.0,         0.0
"Line.BB_64159"         ,   2,        -9.0,        -0.7
"Line.BB_64172"         ,   1,         5.5,         0.7,         0.0,         0.0,         0.0,         0.0
"Line.BB_64172"         ,   2,        -5.5,        -0.7
"Line.BB_64247"         ,   1,         9.5,         1.0,         0.0,         0.0,         0.0,         0.0
"Line.BB_64247"         ,   2,        -9.5,        -1.0
"Line.BB_64254"         ,   1,         4.3,         0.4,         0.0,         0.0,         0.0,         0.0
"Line.BB_64254"         ,   2,        -4.3,        -0.4
"Line.BB_64279"         ,   1,        21.1,         7.4,         0.0,         0.0,         0.0,         0.0
"Line.BB_64279"         ,   2,       -21.1,        -7.4
"Line.BB_64280"         ,   1,         3.4,         0.4,         0.0,         0.0,         0.0,         0.0
"Line.BB_64280"         ,   2,        -3.4,        -0.4
"Line.BB_64322"         ,   1,         7.2,         0.7,         0.0,         0.0,         0.0,         0.0
"Line.BB_64322"         ,   2,        -7.2,        -0.7
"Line.BB_64469"         ,   1,        22.3,         1.6,         0.0,         0.0,         0.0,         0.0
"Line.BB_64469"         ,   2,       -22.3,        -1.6
"Line.BB_64478"         ,   1,        16.6,         1.3,         0.0,         0.0,         0.0,         0.0
"Line.BB_64478"         ,   2,       -16.6,        -1.3
"Line.BB_64575"         ,   1,         9.6,         0.7,         0.0,         0.0,         0.0,         0.0
"Line.BB_64575"         ,   2,        -9.6,        -0.7
"Line.BB_64599"         ,   1,      1079.1,       104.5,         0.0,         0.0,         0.0,         0.0
"Line.BB_64599"         ,   2,     -1079.1,      -104.5
"Line.BB_64630"         ,   1,         0.0,         0.0,         0.0,         0.0,         0.0,         0.0
"Line.BB_64630"         ,   2,         0.0,        -0.0
"Line.BB_64821"         ,   1,         4.0,         0.6,         0.0,         0.0,         0.0,         0.0
"Line.BB_64821"         ,   2,        -4.0,        -0.6
"Line.BB_64829"         ,   1,       -97.7,         8.5,         0.0,         0.0,         0.0,         0.0
"Line.BB_64829"         ,   2,        97.7,        -8.5
"Line.BB_64852"         ,   1,        10.2,         4.2,         0.0,         0.0,         0.0,         0.0
"Line.BB_64852"         ,   2,       -10.2,        -4.2
"Line.BB_64883"         ,   1,         1.0,         0.0,         0.0,         0.0,         0.0,         0.0
"Line.BB_64883"         ,   2,        -1.0,        -0.0
"Line.BB_65081"         ,   1,        35.3,       -17.9,         0.0,         0.0,         0.0,         0.0
"Line.BB_65081"         ,   2,       -35.3,        17.9
"Line.BB_65118"         ,   1,         2.6,         3.4,         0.0,         0.0,         0.0,         0.0
"Line.BB_65118"         ,   2,        -2.6,        -3.4
"Line.BB_65225"         ,   1,        12.3,         2.1,         0.0,         0.0,         0.0,         0.0
"Line.BB_65225"         ,   2,       -12.3,        -2.1
"Line.BB_65226"         ,   1,        18.5,         1.8,         0.0,         0.0,         0.0,         0.0
"Line.BB_65226"         ,   2,       -18.5,        -1.8
"Line.BB_65227"         ,   1,         6.1,         2.4,         0.0,         0.0,         0.0,         0.0
"Line.BB_65227"         ,   2,        -6.1,        -2.4
"Line.BB_65299"         ,   1,       -69.9,        11.2,         0.0,         0.0,         0.0,         0.0
"Line.BB_65299"         ,   2,        69.9,       -11.2
"Line.BB_65301"         ,   1,         6.7,         0.8,         0.0,         0.0,         0.0,         0.0
"Line.BB_65301"         ,   2,        -6.7,        -0.8
"Line.BB_65302"         ,   1,       -48.9,        16.5,         0.0,         0.0,         0.0,         0.0
"Line.BB_65302"         ,   2,        48.9,       -16.5
"Line.BB_65303"         ,   1,        66.7,       -11.6,         0.0,         0.0,         0.0,         0.0
"Line.BB_65303"         ,   2,       -66.7,        11.6
"Line.BB_65317"         ,   1,        -0.5,        -2.5,         0.0,         0.0,         0.0,         0.0
"Line.BB_65317"         ,   2,         0.5,         2.5
"Line.BB_65318"         ,   1,         5.1,         0.7,         0.0,         0.0,         0.0,         0.0
"Line.BB_65318"         ,   2,        -5.1,        -0.7
"Line.BB_65321"         ,   1,        -4.8,        -2.8,         0.0,         0.0,         0.0,         0.0
"Line.BB_65321"         ,   2,         4.8,         2.8
"Line.BB_65341"         ,   1,        73.4,       -36.3,         0.0,         0.0,         0.0,         0.0
"Line.BB_65341"         ,   2,       -73.4,        36.3
"Line.DEV_64244_64295"  ,   1,        -1.7,        -0.2,         0.0,         0.0,         0.0,         0.0
"Line.DEV_64244_64295"  ,   2,         1.7,         0.2
"Line.DEV_64598_64610"  ,   1,     -1079.1,      -104.5,         0.0,         0.0,         0.0,         0.0
"Line.DEV_64598_64610"  ,   2,      1079.1,       104.5
"Line.DEV_64600_64601"  ,   1,     -1053.4,      -102.3,         0.0,         0.0,         0.0,         0.0
"Line.DEV_64600_64601"  ,   2,      1053.4,       102.3
"Line.OH_50004780"      ,   1,        77.0,         5.5,         0.0,         0.0,         0.0,         0.0
"Line.OH_50004780"      ,   2,       -77.0,        -5.5
"Line.OH_50004781"      ,   1,       -34.9,        -2.5,         0.0,         0.0,         0.0,         0.0
"Line.OH_50004781"      ,   2,        34.9,         2.5
"Line.OH_50011126"      ,   1,       429.9,        41.3,         0.0,         0.0,         0.0,         0.0
"Line.OH_50011126"      ,   2,      -429.8,       -41.3
"Line.OH_50011128"      ,   1,        -5.5,        -0.6,         0.0,         0.0,         0.0,         0.0
"Line.OH_50011128"      ,   2,         5.5,         0.6
"Line.OH_50011129"      ,   1,         4.1,         0.4,         0.0,         0.0,         0.0,         0.0
"Line.OH_50011129"      ,   2,        -4.1,        -0.4
"Line.OH_50017187"      ,   1,        29.1,         2.8,         0.0,         0.0,         0.0,         0.0
"Line.OH_50017187"      ,   2,       -29.0,        -2.8
"Line.OH_50026548"      ,   1,        17.6,         1.8,         0.0,         0.0,         0.0,         0.0
"Line.OH_50026548"      ,   2,       -17.6,        -1.8
"Line.OH_50026571"      ,   1,        49.1,         3.5,         0.0,         0.0,         0.0,         0.0
"Line.OH_50026571"      ,   2,       -49.1,        -3.5
"Line.OH_50026588"      ,   1,       -10.0,        -1.0,         0.0,         0.0,         0.0,         0.0
"Line.OH_50026588"      ,   2,        10.0,         1.0
"Line.OH_50026590"      ,   1,        -7.8,        -0.8,         0.0,         0.0,         0.0,         0.0
"Line.OH_50026590"      ,   2,         7.8,         0.8
"Line.OH_50026852"      ,   1,       -17.6,        -1.8,         0.0,         0.0,         0.0,         0.0
"Line.OH_50026852"      ,   2,        17.6,         1.8
"Line.OH_50026853"      ,   1,       -47.5,        -3.4,         0.0,         0.0,         0.0,         0.0
"Line.OH_50026853"      ,   2,        47.5,         3.4
"Line.OH_50144"         ,   1,        47.3,         4.1,         0.0,         0.0,         0.0,         0.0
"Line.OH_50144"         ,   2,       -47.3,        -4.1
"Line.OH_50145"         ,   1,        -0.0,        -0.0,         0.0,         0.0,         0.0,         0.0
"Line.OH_50145"         ,   2,         0.0,         0.0
"Line.OH_51042716"      ,   1,      1412.3,       153.3,         0.0,         0.0,         0.0,         0.0
"Line.OH_51042716"      ,   2,     -1410.5,      -152.0
"Line.OH_51066692"      ,   1,        16.2,         1.7,         0.0,         0.0,         0.0,         0.0
"Line.OH_51066692"      ,   2,       -16.2,        -1.7
"Line.OH_51066693"      ,   1,         8.2,         0.9,         0.0,         0.0,         0.0,         0.0
"Line.OH_51066693"      ,   2,        -8.2,        -0.9
"Line.OH_51066694"      ,   1,         8.1,         0.8,         0.0,         0.0,         0.0,         0.0
"Line.OH_51066694"      ,   2,        -8.1,        -0.8
"Line.OH_51079297"      ,   1,        20.6,         1.5,         0.0,         0.0,         0.0,         0.0
"Line.OH_51079297"      ,   2,       -20.6,        -1.5
"Line.OH_51209273"      ,   1,        21.4,         2.2,         0.0,         0.0,         0.0,         0.0
"Line.OH_51209273"      ,   2,       -21.4,        -2.2
"Line.OH_59846"         ,   1,       174.7,        15.9,         0.0,         0.0,         0.0,         0.0
"Line.OH_59846"         ,   2,      -174.5,       -15.8
"Line.OH_59847"         ,   1,       192.3,        17.6,         0.0,         0.0,         0.0,         0.0
"Line.OH_59847"         ,   2,      -192.3,       -17.6
"Line.OH_59848"         ,   1,       182.4,        16.6,         0.0,         0.0,         0.0,         0.0
"Line.OH_59848"         ,   2,      -182.3,       -16.6
"Line.OH_59849"         ,   1,       147.8,        13.4,         0.0,         0.0,         0.0,         0.0
"Line.OH_59849"         ,   2,      -147.8,       -13.4
"Line.OH_59850"         ,   1,        47.3,         4.1,         0.0,         0.0,         0.0,         0.0
"Line.OH_59850"         ,   2,       -47.3,        -4.1
"Line.OH_59851"         ,   1,        47.3,         4.1,         0.0,         0.0,         0.0,         0.0
"Line.OH_59851"         ,   2,       -47.3,        -4.1
"Line.OH_59853"         ,   1,         3.9,         0.3,         0.0,         0.0,         0.0,         0.0
"Line.OH_59853"         ,   2,        -3.9,        -0.3
"Line.OH_59856"         ,   1,         3.8,         0.4,         0.0,         0.0,         0.0,         0.0
"Line.OH_59856"         ,   2,        -3.8,        -0.4
"Line.OH_59861"         ,   1,        35.5,         3.4,         0.0,         0.0,         0.0,         0.0
"Line.OH_59861"         ,   2,       -35.5,        -3.4
"Line.OH_59862"         ,   1,        40.6,         3.9,         0.0,         0.0,         0.0,         0.0
"Line.OH_59862"         ,   2,       -40.6,        -3.9
"Line.OH_59863"         ,   1,       123.7,        11.7,         0.0,         0.0,         0.0,         0.0
"Line.OH_59863"         ,   2,      -123.4,       -11.4
"Line.OH_59864"         ,   1,       123.4,        11.4,         0.0,         0.0,         0.0,         0.0
"Line.OH_59864"         ,   2,      -123.4,       -11.4
"Line.OH_63209"         ,   1,     -1492.0,      -171.9,         0.0,         0.0,         0.0,         0.0
"Line.OH_63209"         ,   2,      1492.5,       172.3
"Line.OH_63858"         ,   1,       725.5,        67.7,         0.0,         0.0,         0.0,         0.0
"Line.OH_63858"         ,   2,      -724.1,       -67.0
"Line.OH_63859"         ,   1,        68.9,         5.2,         0.0,         0.0,         0.0,         0.0
"Line.OH_63859"         ,   2,       -68.9,        -5.2
"Line.OH_63860"         ,   1,       643.7,        61.0,         0.0,         0.0,         0.0,         0.0
"Line.OH_63860"         ,   2,      -642.5,       -60.4
"Line.OH_63876"         ,   1,       -26.8,        -1.9,         0.0,         0.0,         0.0,         0.0
"Line.OH_63876"         ,   2,        26.8,         1.9
"Line.OH_63877"         ,   1,        27.7,         2.0,         0.0,         0.0,         0.0,         0.0
"Line.OH_63877"         ,   2,       -27.7,        -2.0
"Line.OH_63937"         ,   1,       -29.1,        -2.8,         0.0,         0.0,         0.0,         0.0
"Line.OH_63937"         ,   2,        29.1,         2.8
"Line.OH_64006"         ,   1,       135.3,        10.9,         0.0,         0.0,         0.0,         0.0
"Line.OH_64006"         ,   2,      -135.3,       -10.9
"Line.OH_64007"         ,   1,        10.2,         0.7,         0.0,         0.0,         0.0,         0.0
"Line.OH_64007"         ,   2,       -10.2,        -0.7
"Line.OH_64010"         ,   1,        37.3,         2.7,         0.0,         0.0,         0.0,         0.0
"Line.OH_64010"         ,   2,       -37.3,        -2.7
"Line.OH_64011"         ,   1,        29.5,         2.1,         0.0,         0.0,         0.0,         0.0
"Line.OH_64011"         ,   2,       -29.5,        -2.1
"Line.OH_64042"         ,   1,      -288.1,       -25.1,         0.0,         0.0,         0.0,         0.0
"Line.OH_64042"         ,   2,       288.2,        25.2
"Line.OH_64043"         ,   1,        -5.5,        -0.7,         0.0,         0.0,         0.0,         0.0
"Line.OH_64043"         ,   2,         5.5,         0.7
"Line.OH_64045"         ,   1,      -238.9,       -21.0,         0.0,         0.0,         0.0,         0.0
"Line.OH_64045"         ,   2,       239.0,        21.1
"Line.OH_64046"         ,   1,        24.8,         1.8,         0.0,         0.0,         0.0,         0.0
"Line.OH_64046"         ,   2,       -24.8,        -1.8
"Line.OH_64064"         ,   1,       -21.5,        -1.5,         0.0,         0.0,         0.0,         0.0
"Line.OH_64064"         ,   2,        21.5,         1.5
"Line.OH_64066"         ,   1,      -192.3,       -17.6,         0.0,         0.0,         0.0,         0.0
"Line.OH_64066"         ,   2,       192.4,        17.7
"Line.OH_64067"         ,   1,       181.9,        15.5,         0.0,         0.0,         0.0,         0.0
"Line.OH_64067"         ,   2,      -181.9,       -15.5
"Line.OH_64068"         ,   1,       135.4,        11.0,         0.0,         0.0,         0.0,         0.0
"Line.OH_64068"         ,   2,      -135.3,       -10.9
"Line.OH_64069"         ,   1,       144.7,        11.9,         0.0,         0.0,         0.0,         0.0
"Line.OH_64069"         ,   2,      -144.7,       -11.9
"Line.OH_64074"         ,   1,        17.8,         1.8,         0.0,         0.0,         0.0,         0.0
"Line.OH_64074"         ,   2,       -17.8,        -1.8
"Line.OH_64080"         ,   1,         0.0,        -0.0,         0.0,         0.0,         0.0,         0.0
"Line.OH_64080"         ,   2,        -0.0,        -0.0
"Line.OH_64099"         ,   1,      -288.2,       -25.2,         0.0,         0.0,         0.0,         0.0
"Line.OH_64099"         ,   2,       288.5,        25.3
"Line.OH_64145"         ,   1,        54.5,         3.9,         0.0,         0.0,         0.0,         0.0
"Line.OH_64145"         ,   2,       -54.5,        -3.9
"Line.OH_64146"         ,   1,        54.5,         3.9,         0.0,         0.0,         0.0,         0.0
"Line.OH_64146"         ,   2,       -54.5,        -3.9
"Line.OH_64156"         ,   1,         9.0,         0.7,         0.0,         0.0,         0.0,         0.0
"Line.OH_64156"         ,   2,        -9.0,        -0.7
"Line.OH_64167"         ,   1,      -192.4,       -17.7,         0.0,         0.0,         0.0,         0.0
"Line.OH_64167"         ,   2,       192.5,        17.7
"Line.OH_64176"         ,   1,      -273.3,       -23.5,         0.0,         0.0,         0.0,         0.0
"Line.OH_64176"         ,   2,       273.5,        23.6
"Line.OH_64235"         ,   1,         4.7,        -4.7,         0.0,         0.0,         0.0,         0.0
"Line.OH_64235"         ,   2,        -4.7,         4.7
"Line.OH_64236"         ,   1,        79.3,         2.9,         0.0,         0.0,         0.0,         0.0
"Line.OH_64236"         ,   2,       -79.3,        -2.9
"Line.OH_64239"         ,   1,        74.5,         7.7,         0.0,         0.0,         0.0,         0.0
"Line.OH_64239"         ,   2,       -74.5,        -7.6
"Line.OH_64240"         ,   1,        -7.8,        -0.8,         0.0,         0.0,         0.0,         0.0
"Line.OH_64240"         ,   2,         7.8,         0.8
"Line.OH_64249"         ,   1,         4.3,         0.4,         0.0,         0.0,         0.0,         0.0
"Line.OH_64249"         ,   2,        -4.3,        -0.4
"Line.OH_64255"         ,   1,        62.3,         6.4,         0.0,         0.0,         0.0,         0.0
"Line.OH_64255"         ,   2,       -62.3,        -6.4
"Line.OH_64256"         ,   1,        19.3,         2.0,         0.0,         0.0,         0.0,         0.0
"Line.OH_64256"         ,   2,       -19.3,        -2.0
"Line.OH_64258"         ,   1,        19.3,         2.0,         0.0,         0.0,         0.0,         0.0
"Line.OH_64258"         ,   2,       -19.3,        -2.0
"Line.OH_64259"         ,   1,         9.0,         0.9,         0.0,         0.0,         0.0,         0.0
"Line.OH_64259"         ,   2,        -9.0,        -0.9
"Line.OH_64261"         ,   1,         9.0,         0.9,         0.0,         0.0,         0.0,         0.0
"Line.OH_64261"         ,   2,        -9.0,        -0.9
"Line.OH_64262"         ,   1,         9.0,         0.9,         0.0,         0.0,         0.0,         0.0
"Line.OH_64262"         ,   2,        -9.0,        -0.9
"Line.OH_64265"         ,   1,        36.8,         3.8,         0.0,         0.0,         0.0,         0.0
"Line.OH_64265"         ,   2,       -36.8,        -3.8
"Line.OH_64266"         ,   1,        27.6,         2.8,         0.0,         0.0,         0.0,         0.0
"Line.OH_64266"         ,   2,       -27.6,        -2.8
"Line.OH_64267"         ,   1,        19.6,         2.0,         0.0,         0.0,         0.0,         0.0
"Line.OH_64267"         ,   2,       -19.6,        -2.0
"Line.OH_64274"         ,   1,        19.6,         2.0,         0.0,         0.0,         0.0,         0.0
"Line.OH_64274"         ,   2,       -19.6,        -2.0
"Line.OH_64275"         ,   1,         4.1,         0.4,         0.0,         0.0,         0.0,         0.0
"Line.OH_64275"         ,   2,        -4.1,        -0.4
"Line.OH_64283"         ,   1,        74.5,         7.6,         0.0,         0.0,         0.0,         0.0
"Line.OH_64283"         ,   2,       -74.5,        -7.6
"Line.OH_64383"         ,   1,       182.0,        15.5,         0.0,         0.0,         0.0,         0.0
"Line.OH_64383"         ,   2,      -181.9,       -15.5
"Line.OH_64384"         ,   1,       439.7,        42.4,         0.0,         0.0,         0.0,         0.0
"Line.OH_64384"         ,   2,      -439.4,       -42.3
"Line.OH_64385"         ,   1,      -182.0,       -15.5,         0.0,         0.0,         0.0,         0.0
"Line.OH_64385"         ,   2,       182.0,        15.6
"Line.OH_64386"         ,   1,       642.5,        60.4,         0.0,         0.0,         0.0,         0.0
"Line.OH_64386"         ,   2,      -641.5,       -59.9
"Line.OH_64387"         ,   1,        66.8,         4.7,         0.0,         0.0,         0.0,         0.0
"Line.OH_64387"         ,   2,       -66.8,        -4.7
"Line.OH_64388"         ,   1,        42.1,         3.0,         0.0,         0.0,         0.0,         0.0
"Line.OH_64388"         ,   2,       -42.1,        -3.0
"Line.OH_64485"         ,   1,      -727.1,       -68.6,         0.0,         0.0,         0.0,         0.0
"Line.OH_64485"         ,   2,       730.4,        70.3
"Line.OH_64486"         ,   1,      -926.6,       -89.4,         0.0,         0.0,         0.0,         0.0
"Line.OH_64486"         ,   2,       929.6,        91.0
"Line.OH_64487"         ,   1,      -946.1,       -92.7,         0.0,         0.0,         0.0,         0.0
"Line.OH_64487"         ,   2,       948.5,        94.0
"Line.OH_64493"         ,   1,       180.5,        17.6,         0.0,         0.0,         0.0,         0.0
"Line.OH_64493"         ,   2,      -180.5,       -17.6
"Line.OH_64494"         ,   1,       180.5,        17.6,         0.0,         0.0,         0.0,         0.0
"Line.OH_64494"         ,   2,      -180.4,       -17.5
"Line.OH_64495"         ,   1,        95.5,         6.8,         0.0,         0.0,         0.0,         0.0
"Line.OH_64495"         ,   2,       -95.4,        -6.8
"Line.OH_64496"         ,   1,        68.8,         4.9,         0.0,         0.0,         0.0,         0.0
"Line.OH_64496"         ,   2,       -68.8,        -4.9
"Line.OH_64497"         ,   1,        33.4,         2.4,         0.0,         0.0,         0.0,         0.0
"Line.OH_64497"         ,   2,       -33.4,        -2.4
"Line.OH_64498"         ,   1,        12.8,         0.9,         0.0,         0.0,         0.0,         0.0
"Line.OH_64498"         ,   2,       -12.8,        -0.9
"Line.OH_64532"         ,   1,       727.1,        68.6,         0.0,         0.0,         0.0,         0.0
"Line.OH_64532"         ,   2,      -725.5,       -67.7
"Line.OH_64534"         ,   1,        95.6,         6.9,         0.0,         0.0,         0.0,         0.0
"Line.OH_64534"         ,   2,       -95.5,        -6.9
"Line.OH_64535"         ,   1,        95.5,         6.9,         0.0,         0.0,         0.0,         0.0
"Line.OH_64535"         ,   2,       -95.5,        -6.8
"Line.OH_64563"         ,   1,        47.5,         4.6,         0.0,         0.0,         0.0,         0.0
"Line.OH_64563"         ,   2,       -47.5,        -4.6
"Line.OH_64564"         ,   1,        84.4,         8.2,         0.0,         0.0,         0.0,         0.0
"Line.OH_64564"         ,   2,       -84.3,        -8.1
"Line.OH_64570"         ,   1,        20.6,         1.5,         0.0,         0.0,         0.0,         0.0
"Line.OH_64570"         ,   2,       -20.6,        -1.5
"Line.OH_64580"         ,   1,         9.6,         0.7,         0.0,         0.0,         0.0,         0.0
"Line.OH_64580"         ,   2,        -9.6,        -0.7
"Line.OH_64582"         ,   1,        11.0,         0.8,         0.0,         0.0,         0.0,         0.0
"Line.OH_64582"         ,   2,       -11.0,        -0.8
...
"Line.TIE_64470"        ,   1,         0.0,        -0.0,         0.0,         0.0,         0.0,         0.0
"Line.TIE_64470"        ,   2,        -0.0,        -0.0
"Line.TIE_65119"        ,   1,        -0.0,         0.0,         0.0,         0.0,         0.0,         0.0
"Line.TIE_65119"        ,   2,         0.0,        -0.0
"Line.UG_50011124"      ,   1,         5.5,         0.6,         0.0,         0.0,         0.0,         0.0
"Line.UG_50011124"      ,   2,        -5.5,        -0.6
"Line.UG_50011136"      ,   1,         4.1,         0.4,         0.0,         0.0,         0.0,         0.0
"Line.UG_50011136"      ,   2,        -4.1,        -0.4
"Line.UG_50011139"      ,   1,         5.5,         0.6,         0.0,         0.0,         0.0,         0.0
"Line.UG_50011139"      ,   2,        -5.5,        -0.6
"Line.UG_50011140"      ,   1,         4.1,         0.4,         0.0,         0.0,         0.0,         0.0
"Line.UG_50011140"      ,   2,        -4.1,        -0.4
"Line.UG_50026554"      ,   1,        17.6,         1.8,         0.0,         0.0,         0.0,         0.0
"Line.UG_50026554"      ,   2,       -17.6,        -1.8
"Line.UG_50026555"      ,   1,       -17.6,        -1.8,         0.0,         0.0,         0.0,         0.0
"Line.UG_50026555"      ,   2,        17.6,         1.8
"Line.UG_50026565"      ,   1,        -9.7,        -1.0,         0.0,         0.0,         0.0,         0.0
"Line.UG_50026565"      ,   2,         9.7,         1.0
"Line.UG_50026566"      ,   1,        10.0,         1.0,         0.0,         0.0,         0.0,         0.0
"Line.UG_50026566"      ,   2,       -10.0,        -1.0
"Line.UG_50026567"      ,   1,        -7.6,        -0.8,         0.0,         0.0,         0.0,         0.0
"Line.UG_50026567"      ,   2,         7.6,         0.8
"Line.UG_50026574"      ,   1,       -14.1,        -1.0,         0.0,         0.0,         0.0,         0.0
"Line.UG_50026574"      ,   2,        14.1,         1.0
"Line.UG_50026575"      ,   1,        -5.4,        -0.4,         0.0,         0.0,         0.0,         0.0
"Line.UG_50026575"      ,   2,         5.4,         0.4
"Line.UG_50026591"      ,   1,        34.9,         2.5,         0.0,         0.0,         0.0,         0.0
"Line.UG_50026591"      ,   2,       -34.9,        -2.5
"Line.UG_50026596"      ,   1,       -42.1,        -3.0,         0.0,         0.0,         0.0,         0.0
"Line.UG_50026596"      ,   2,        42.1,         3.0
"Line.UG_50026608"      ,   1,         7.8,         0.8,         0.0,         0.0,         0.0,         0.0
"Line.UG_50026608"      ,   2,        -7.8,        -0.8
"Line.UG_50026610"      ,   1,        10.0,         1.0,         0.0,         0.0,         0.0,         0.0
"Line.UG_50026610"      ,   2,       -10.0,        -1.0
"Line.UG_50026622"      ,   1,       -42.1,        -3.0,         0.0,         0.0,         0.0,         0.0
"Line.UG_50026622"      ,   2,        42.1,         3.0
"Line.UG_50026627"      ,   1,        35.0,         2.5,         0.0,         0.0,         0.0,         0.0
"Line.UG_50026627"      ,   2,       -34.9,        -2.5
"Line.UG_50026628"      ,   1,         7.8,         0.8,         0.0,         0.0,         0.0,         0.0
"Line.UG_50026628"      ,   2,        -7.8,        -0.8
"Line.UG_50026631"      ,   1,       -49.0,        -3.5,         0.0,         0.0,         0.0,         0.0
"Line.UG_50026631"      ,   2,        49.1,         3.5
"Line.UG_50026632"      ,   1,       -47.4,        -3.4,         0.0,         0.0,         0.0,         0.0
"Line.UG_50026632"      ,   2,        47.5,         3.4
"Line.UG_50028195"      ,   1,        28.7,       -18.6,         0.0,         0.0,         0.0,         0.0
"Line.UG_50028195"      ,   2,       -28.7,        18.6
"Line.UG_50146"         ,   1,        20.5,         2.0,         0.0,         0.0,         0.0,         0.0
"Line.UG_50146"         ,   2,       -20.5,        -2.0
"Line.UG_50153"         ,   1,       -35.4,        -3.4,         0.0,         0.0,         0.0,         0.0
"Line.UG_50153"         ,   2,        35.4,         3.4
"Line.UG_50154"         ,   1,        35.5,         3.4,         0.0,         0.0,         0.0,         0.0
"Line.UG_50154"         ,   2,       -35.5,        -3.4
"Line.UG_50156"         ,   1,        40.6,         3.9,         0.0,         0.0,         0.0,         0.0
"Line.UG_50156"         ,   2,       -40.6,        -3.9
"Line.UG_50159"         ,   1,       -35.4,        -3.4,         0.0,         0.0,         0.0,         0.0
"Line.UG_50159"         ,   2,        35.4,         3.4
"Line.UG_50160"         ,   1,       -35.4,        -3.4,         0.0,         0.0,         0.0,         0.0
"Line.UG_50160"         ,   2,        35.4,         3.4
"Line.UG_50161"         ,   1,       -20.5,        -2.0,         0.0,         0.0,         0.0,         0.0
"Line.UG_50161"         ,   2,        20.5,         2.0
"Line.UG_50162"         ,   1,       -20.5,        -1.9,         0.0,         0.0,         0.0,         0.0
"Line.UG_50162"         ,   2,        20.5,         2.0
"Line.UG_50164"         ,   1,       -20.5,        -1.9,         0.0,         0.0,         0.0,         0.0
"Line.UG_50164"         ,   2,        20.5,         1.9
"Line.UG_50170"         ,   1,       -35.4,        -3.4,         0.0,         0.0,         0.0,         0.0
"Line.UG_50170"         ,   2,        35.4,         3.4
"Line.UG_50173"         ,   1,       -40.6,        -3.9,         0.0,         0.0,         0.0,         0.0
"Line.UG_50173"         ,   2,        40.6,         3.9
"Line.UG_50174"         ,   1,       -35.4,        -3.4,         0.0,         0.0,         0.0,         0.0
"Line.UG_50174"         ,   2,        35.5,         3.4
"Line.UG_50175"         ,   1,       -40.6,        -3.9,         0.0,         0.0,         0.0,         0.0
"Line.UG_50175"         ,   2,        40.6,         3.9
"Line.UG_50207"         ,   1,        -3.8,        -0.4,         0.0,         0.0,         0.0,         0.0
"Line.UG_50207"         ,   2,         3.8,         0.4
"Line.UG_50208"         ,   1,        -3.9,        -0.4,         0.0,         0.0,         0.0,         0.0
"Line.UG_50208"         ,   2,         3.9,         0.4
"Line.UG_50209"         ,   1,        -3.9,        -0.4,         0.0,         0.0,         0.0,         0.0
"Line.UG_50209"         ,   2,         3.9,         0.4
"Line.UG_50259"         ,   1,       -29.5,        -2.1,         0.0,         0.0,         0.0,         0.0
"Line.UG_50259"         ,   2,        29.5,         2.1
"Line.UG_50260"         ,   1,        -0.0,        -0.0,         0.0,         0.0,         0.0,         0.0
"Line.UG_50260"         ,   2,         0.0,         0.0
"Line.UG_50271"         ,   1,       -22.6,        -1.6,         0.0,         0.0,         0.0,         0.0
"Line.UG_50271"         ,   2,        22.6,         1.6
"Line.UG_51045204"      ,   1,         8.8,         0.6,         0.0,         0.0,         0.0,         0.0
"Line.UG_51045204"      ,   2,        -8.8,        -0.6
"Line.UG_51066673"      ,   1,        97.5,        -8.5,         0.0,         0.0,         0.0,         0.0
"Line.UG_51066673"      ,   2,       -97.4,         8.5
"Line.UG_51066674"      ,   1,       -97.5,         8.5,         0.0,         0.0,         0.0,         0.0
"Line.UG_51066674"      ,   2,        97.7,        -8.5
"Line.UG_51066675"      ,   1,       -93.6,         8.9,         0.0,         0.0,         0.0,         0.0
"Line.UG_51066675"      ,   2,        93.6,        -8.9
"Line.UG_51066704"      ,   1,         8.1,         0.8,         0.0,         0.0,         0.0,         0.0
"Line.UG_51066704"      ,   2,        -8.1,        -0.8
"Line.UG_51066705"      ,   1,         8.2,         0.9,         0.0,         0.0,         0.0,         0.0
"Line.UG_51066705"      ,   2,        -8.2,        -0.9
"Line.UG_51066786"      ,   1,         8.1,         0.8,         0.0,         0.0,         0.0,         0.0
"Line.UG_51066786"      ,   2,        -8.1,        -0.8
"Line.UG_51066788"      ,   1,         8.2,         0.9,         0.0,         0.0,         0.0,         0.0
"Line.UG_51066788"      ,   2,        -8.2,        -0.9
"Line.UG_51071432"      ,   1,       -66.6,        -6.4,         0.0,         0.0,         0.0,         0.0
"Line.UG_51071432"      ,   2,        66.6,         6.4
"Line.UG_51071433"      ,   1,       -66.6,        -6.4,         0.0,         0.0,         0.0,         0.0
"Line.UG_51071433"      ,   2,        66.6,         6.4
"Line.UG_51091903"      ,   1,       -69.8,        11.3,         0.0,         0.0,         0.0,         0.0
"Line.UG_51091903"      ,   2,        69.9,       -11.2
"Line.UG_51091909"      ,   1,       -69.8,        11.3,         0.0,         0.0,         0.0,         0.0
"Line.UG_51091909"      ,   2,        69.8,       -11.3
"Line.UG_51091911"      ,   1,       -66.7,        11.6,         0.0,         0.0,         0.0,         0.0
"Line.UG_51091911"      ,   2,        66.7,       -11.6
"Line.UG_51118252"      ,   1,       -51.9,        16.2,         0.0,         0.0,         0.0,         0.0
"Line.UG_51118252"      ,   2,        52.0,       -16.3
"Line.UG_51121397"      ,   1,        -5.5,        -0.7,         0.0,         0.0,         0.0,         0.0
"Line.UG_51121397"      ,   2,         5.5,         0.7
"Line.UG_51121408"      ,   1,         5.5,         0.7,         0.0,         0.0,         0.0,         0.0
"Line.UG_51121408"      ,   2,        -5.5,        -0.7
"Line.UG_51121409"      ,   1,        -5.5,        -0.7,         0.0,         0.0,         0.0,         0.0
"Line.UG_51121409"      ,   2,         5.5,         0.7
"Line.UG_51193307"      ,   1,       -27.7,        -1.9,         0.0,         0.0,         0.0,         0.0
"Line.UG_51193307"      ,   2,        27.7,         2.0
"Line.UG_51215063"      ,   1,        21.1,         7.4,         0.0,         0.0,         0.0,         0.0
"Line.UG_51215063"      ,   2,       -21.1,        -7.4
"Line.UG_51259023"      ,   1,        -0.0,        -0.0,         0.0,         0.0,         0.0,         0.0
"Line.UG_51259023"      ,   2,         0.0,         0.0
"Line.UG_59854"         ,   1,         3.9,         0.3,         0.0,         0.0,         0.0,         0.0
"Line.UG_59854"         ,   2,        -3.9,        -0.4
"Line.UG_59855"         ,   1,         3.8,         0.4,         0.0,         0.0,         0.0,         0.0
"Line.UG_59855"         ,   2,        -3.8,        -0.4
"Line.SECTION_0001"     ,   1,      1695.1,       202.3,         0.0,         0.0,         0.0,         0.0
"Line.SECTION_0001"     ,   2,     -1695.1,      -202.2
"Line.SECTION_0002"     ,   1,        78.1,        12.0,         0.0,         0.0,         0.0,         0.0
"Line.SECTION_0002"     ,   2,       -78.1,       -12.0
"Line.SECTION_0003"     ,   1,       122.4,        16.6,         0.0,         0.0,         0.0,         0.0
"Line.SECTION_0003"     ,   2,      -122.4,       -16.6
"Line.SECTION_0004"     ,   1,      1494.5,       173.6,         0.0,         0.0,         0.0,         0.0
"Line.SECTION_0004"     ,   2,     -1494.5,      -173.6
"Line.UG_63213"         ,   1,      1494.5,       173.6,         0.0,         0.0,         0.0,         0.0
"Line.UG_63213"         ,   2,     -1492.5,      -172.3
"Line.UG_63404"         ,   1,        -8.6,        -0.6,         0.0,         0.0,         0.0,         0.0
"Line.UG_63404"         ,   2,         8.6,         0.6
"Line.UG_63405"         ,   1,         8.0,         0.6,         0.0,         0.0,         0.0,         0.0
"Line.UG_63405"         ,   2,        -8.0,        -0.6
"Line.UG_63406"         ,   1,        -7.8,        -0.6,         0.0,         0.0,         0.0,         0.0
"Line.UG_63406"         ,   2,         7.8,         0.5
"Line.UG_63424"         ,   1,       -16.6,        -1.2,         0.0,         0.0,         0.0,         0.0
"Line.UG_63424"         ,   2,        16.6,         1.2
"Line.UG_63543"         ,   1,       -15.4,        -1.5,         0.0,         0.0,         0.0,         0.0
"Line.UG_63543"         ,   2,        15.4,         1.5
"Line.UG_63547"         ,   1,         0.0,        -0.0,         0.0,         0.0,         0.0,         0.0
"Line.UG_63547"         ,   2,        -0.0,        -0.0
"Line.UG_63549"         ,   1,       -15.4,        -1.5,         0.0,         0.0,         0.0,         0.0
"Line.UG_63549"         ,   2,        15.4,         1.5
"Line.UG_63870"         ,   1,        11.0,         0.8,         0.0,         0.0,         0.0,         0.0
"Line.UG_63870"         ,   2,       -11.0,        -0.8
"Line.UG_63871"         ,   1,        10.2,         0.7,         0.0,         0.0,         0.0,         0.0
"Line.UG_63871"         ,   2,       -10.2,        -0.7
"Line.UG_63872"         ,   1,       -27.7,        -1.9,         0.0,         0.0,         0.0,         0.0
"Line.UG_63872"         ,   2,        27.7,         1.9
"Line.UG_63874"         ,   1,       -26.8,        -1.9,         0.0,         0.0,         0.0,         0.0
"Line.UG_63874"         ,   2,        26.8,         1.9
"Line.UG_63944"         ,   1,       -16.6,        -1.2,         0.0,         0.0,         0.0,         0.0
"Line.UG_63944"         ,   2,        16.6,         1.2
"Line.UG_63945"         ,   1,       -16.6,        -1.2,         0.0,         0.0,         0.0,         0.0
"Line.UG_63945"         ,   2,        16.6,         1.2
"Line.UG_64016"         ,   1,      -429.4,       -40.4,         0.0,         0.0,         0.0,         0.0
"Line.UG_64016"         ,   2,       429.6,        40.9
"Line.UG_64017"         ,   1,       429.8,        41.3,         0.0,         0.0,         0.0,         0.0
"Line.UG_64017"         ,   2,      -429.6,       -40.9
"Line.UG_64019"         ,   1,        15.4,         1.5,         0.0,         0.0,         0.0,         0.0
"Line.UG_64019"         ,   2,       -15.4,        -1.5
"Line.UG_64020"         ,   1,        15.4,         1.5,         0.0,         0.0,         0.0,         0.0
"Line.UG_64020"         ,   2,       -15.4,        -1.5
"Line.UG_64022"         ,   1,         0.0,        -0.0,         0.0,         0.0,         0.0,         0.0
"Line.UG_64022"         ,   2,         0.0,         0.0
"Line.UG_64024"         ,   1,         0.0,        -0.0,         0.0,         0.0,         0.0,         0.0
"Line.UG_64024"         ,   2,        -0.0,        -0.0
"Line.UG_64025"         ,   1,        15.4,         1.5,         0.0,         0.0,         0.0,         0.0
"Line.UG_64025"         ,   2,       -15.4,        -1.5
"Line.UG_64026"         ,   1,         0.0,        -0.0,         0.0,         0.0,         0.0,         0.0
"Line.UG_64026"         ,   2,         0.0,         0.0
"Line.UG_64028"         ,   1,        15.4,         1.5,         0.0,         0.0,         0.0,         0.0
"Line.UG_64028"         ,   2,       -15.4,        -1.5
"Line.UG_64029"         ,   1,      -414.0,       -38.9,         0.0,         0.0,         0.0,         0.0
"Line.UG_64029"         ,   2,       414.0,        39.0
"Line.UG_64030"         ,   1,      -413.8,       -38.6,         0.0,         0.0,         0.0,         0.0
"Line.UG_64030"         ,   2,       414.0,        38.9
"Line.UG_64031"         ,   1,         0.0,        -0.0,         0.0,         0.0,         0.0,         0.0
"Line.UG_64031"         ,   2,         0.0,         0.0
"Line.UG_64033"         ,   1,      -413.8,       -38.9,         0.0,         0.0,         0.0,         0.0
"Line.UG_64033"         ,   2,       413.8,        38.9
"Line.UG_64038"         ,   1,         0.0,        -0.0,         0.0,         0.0,         0.0,         0.0
"Line.UG_64038"         ,   2,        -0.0,        -0.0
"Line.UG_64048"         ,   1,       -24.8,        -1.8,         0.0,         0.0,         0.0,         0.0
"Line.UG_64048"         ,   2,        24.8,         1.8
"Line.UG_64051"         ,   1,       -20.8,        -1.5,         0.0,         0.0,         0.0,         0.0
"Line.UG_64051"         ,   2,        20.8,         1.5
"Line.UG_64052"         ,   1,       -20.7,        -1.5,         0.0,         0.0,         0.0,         0.0
"Line.UG_64052"         ,   2,        20.8,         1.5
"Line.UG_64057"         ,   1,         1.6,         0.1,         0.0,         0.0,         0.0,         0.0
"Line.UG_64057"         ,   2,        -1.6,        -0.1
"Line.UG_64062"         ,   1,       -21.5,        -1.5,         0.0,         0.0,         0.0,         0.0
"Line.UG_64062"         ,   2,        21.5,         1.5
"Line.UG_64079"         ,   1,        -3.8,        -0.4,         0.0,         0.0,         0.0,         0.0
"Line.UG_64079"         ,   2,         3.8,         0.4
"Line.UG_64085"         ,   1,       -24.5,        -2.5,         0.0,         0.0,         0.0,         0.0
"Line.UG_64085"         ,   2,        24.5,         2.5
"Line.UG_64087"         ,   1,       -24.5,        -2.5,         0.0,         0.0,         0.0,         0.0
"Line.UG_64087"         ,   2,        24.5,         2.5
"Line.UG_64088"         ,   1,        17.3,         1.8,         0.0,         0.0,         0.0,         0.0
"Line.UG_64088"         ,   2,       -17.3,        -1.8
"Line.UG_64092"         ,   1,       100.4,        10.3,         0.0,         0.0,         0.0,         0.0
"Line.UG_64092"         ,   2,      -100.4,       -10.3
"Line.UG_64093"         ,   1,       288.5,        25.3,         0.0,         0.0,         0.0,         0.0
"Line.UG_64093"         ,   2,      -288.5,       -25.3
"Line.UG_64094"         ,   1,      -124.9,       -12.8,         0.0,         0.0,         0.0,         0.0
"Line.UG_64094"         ,   2,       124.9,        12.8
"Line.UG_64095"         ,   1,      -413.4,       -38.1,         0.0,         0.0,         0.0,         0.0
"Line.UG_64095"         ,   2,       413.8,        38.9
"Line.UG_64101"         ,   1,        -0.0,        -0.0,         0.0,         0.0,         0.0,         0.0
"Line.UG_64101"         ,   2,         0.0,        -0.4
"Line.UG_64103"         ,   1,         0.0,         0.0,         0.0,         0.0,         0.0,         0.0
"Line.UG_64103"         ,   2,         0.0,        -0.0
"Line.UG_64112"         ,   1,       -34.9,        -2.5,         0.0,         0.0,         0.0,         0.0
"Line.UG_64112"         ,   2,        34.9,         2.5
"Line.UG_64113"         ,   1,       -42.1,        -3.0,         0.0,         0.0,         0.0,         0.0
"Line.UG_64113"         ,   2,        42.1,         3.0
"Line.UG_64163"         ,   1,        -5.2,        -0.3,         0.0,         0.0,         0.0,         0.0
"Line.UG_64163"         ,   2,         5.2,         0.3
"Line.UG_64164"         ,   1,        -9.0,        -0.7,         0.0,         0.0,         0.0,         0.0
"Line.UG_64164"         ,   2,         9.0,         0.7
"Line.UG_64165"         ,   1,        -9.0,        -0.7,         0.0,         0.0,         0.0,         0.0
"Line.UG_64165"         ,   2,         9.0,         0.7
"Line.UG_64166"         ,   1,        -5.2,        -0.4,         0.0,         0.0,         0.0,         0.0
"Line.UG_64166"         ,   2,         5.2,         0.3
"Line.UG_64175"         ,   1,        -5.5,        -0.7,         0.0,         0.0,         0.0,         0.0
"Line.UG_64175"         ,   2,         5.5,         0.7
"Line.UG_64216"         ,   1,        -7.2,        -0.7,         0.0,         0.0,         0.0,         0.0
"Line.UG_64216"         ,   2,         7.2,         0.7
"Line.UG_64218"         ,   1,        79.3,         2.9,         0.0,         0.0,         0.0,         0.0
"Line.UG_64218"         ,   2,       -79.3,        -2.9
"Line.UG_64219"         ,   1,       100.4,        10.3,         0.0,         0.0,         0.0,         0.0
"Line.UG_64219"         ,   2,      -100.4,       -10.3
"Line.UG_64220"         ,   1,        21.1,         7.4,         0.0,         0.0,         0.0,         0.0
"Line.UG_64220"         ,   2,       -21.1,        -7.4
"Line.UG_64221"         ,   1,        21.1,         7.4,         0.0,         0.0,         0.0,         0.0
"Line.UG_64221"         ,   2,       -21.1,        -7.4
"Line.UG_64223"         ,   1,        21.1,         7.4,         0.0,         0.0,         0.0,         0.0
"Line.UG_64223"         ,   2,       -21.1,        -7.4
"Line.UG_64227"         ,   1,         1.3,        -5.1,         0.0,         0.0,         0.0,         0.0
"Line.UG_64227"         ,   2,        -1.3,         5.1
"Line.UG_64229"         ,   1,         1.3,        -5.1,         0.0,         0.0,         0.0,         0.0
"Line.UG_64229"         ,   2,        -1.3,         5.1
"Line.UG_64230"         ,   1,         4.7,        -4.7,         0.0,         0.0,         0.0,         0.0
"Line.UG_64230"         ,   2,        -4.7,         4.7
"Line.UG_64231"         ,   1,         0.0,         0.0,         0.0,         0.0,         0.0,         0.0
"Line.UG_64231"         ,   2,        -0.0,        -0.0
"Line.UG_64232"         ,   1,        -4.7,         4.7,         0.0,         0.0,         0.0,         0.0
"Line.UG_64232"         ,   2,         4.7,        -4.7
"Line.UG_64233"         ,   1,        -4.7,         4.7,         0.0,         0.0,         0.0,         0.0
"Line.UG_64233"         ,   2,         4.7,        -4.7
"Line.UG_64238"         ,   1,        79.3,         2.9,         0.0,         0.0,         0.0,         0.0
"Line.UG_64238"         ,   2,       -79.3,        -2.9
"Line.UG_64242"         ,   1,        -7.8,        -0.8,         0.0,         0.0,         0.0,         0.0
"Line.UG_64242"         ,   2,         7.8,         0.8
"Line.UG_64243"         ,   1,        -7.8,        -0.8,         0.0,         0.0,         0.0,         0.0
"Line.UG_64243"         ,   2,         7.8,         0.8
"Line.UG_64245"         ,   1,         1.7,         0.2,         0.0,         0.0,         0.0,         0.0
"Line.UG_64245"         ,   2,        -1.7,        -0.2
"Line.UG_64246"         ,   1,         1.7,         0.2,         0.0,         0.0,         0.0,         0.0
"Line.UG_64246"         ,   2,        -1.7,        -0.2
"Line.UG_64251"         ,   1,        -4.3,        -0.4,         0.0,         0.0,         0.0,         0.0
"Line.UG_64251"         ,   2,         4.3,         0.4
"Line.UG_64272"         ,   1,         3.4,         0.4,         0.0,         0.0,         0.0,         0.0
"Line.UG_64272"         ,   2,        -3.4,        -0.4
"Line.UG_64273"         ,   1,         0.0,        -0.0,         0.0,         0.0,         0.0,         0.0
"Line.UG_64273"         ,   2,        -0.0,        -0.0
"Line.UG_64400"         ,   1,       -22.6,        -1.6,         0.0,         0.0,         0.0,         0.0
"Line.UG_64400"         ,   2,        22.6,         1.6
"Line.UG_64402"         ,   1,        29.5,         2.1,         0.0,         0.0,         0.0,         0.0
"Line.UG_64402"         ,   2,       -29.5,        -2.1
"Line.UG_64471"         ,   1,       -22.3,        -1.6,         0.0,         0.0,         0.0,         0.0
"Line.UG_64471"         ,   2,        22.3,         1.6
"Line.UG_64475"         ,   1,       -22.3,        -1.6,         0.0,         0.0,         0.0,         0.0
"Line.UG_64475"         ,   2,        22.3,         1.6
"Line.UG_64481"         ,   1,        15.3,         1.0,         0.0,         0.0,         0.0,         0.0
"Line.UG_64481"         ,   2,       -15.3,        -1.0
"Line.UG_64482"         ,   1,       -16.6,        -1.3,         0.0,         0.0,         0.0,         0.0
"Line.UG_64482"         ,   2,        16.6,         1.3
"Line.UG_64526"         ,   1,        54.2,         3.8,         0.0,         0.0,         0.0,         0.0
"Line.UG_64526"         ,   2,       -54.2,        -3.8
"Line.UG_64530"         ,   1,      1135.0,       109.1,         0.0,         0.0,         0.0,         0.0
"Line.UG_64530"         ,   2,     -1134.2,      -108.8
"Line.UG_64578"         ,   1,        11.0,         0.8,         0.0,         0.0,         0.0,         0.0
"Line.UG_64578"         ,   2,       -11.0,        -0.8
"Line.UG_64579"         ,   1,         9.6,         0.7,         0.0,         0.0,         0.0,         0.0
"Line.UG_64579"         ,   2,        -9.6,        -0.7
"Line.UG_64592"         ,   1,      1053.1,       102.2,         0.0,         0.0,         0.0,         0.0
"Line.UG_64592"         ,   2,     -1052.3,      -101.7
"Line.UG_64593"         ,   1,      1080.0,       105.0,         0.0,         0.0,         0.0,         0.0
"Line.UG_64593"         ,   2,     -1079.4,      -104.6
"Line.UG_64594"         ,   1,      1079.4,       104.6,         0.0,         0.0,         0.0,         0.0
"Line.UG_64594"         ,   2,     -1079.3,      -104.6
"Line.UG_64604"         ,   1,      1079.3,       104.6,         0.0,         0.0,         0.0,         0.0
"Line.UG_64604"         ,   2,     -1079.1,      -104.5
"Line.UG_64605"         ,   1,     -1053.1,      -102.2,         0.0,         0.0,         0.0,         0.0
"Line.UG_64605"         ,   2,      1053.4,       102.3
"Line.UG_64625"         ,   1,        17.0,         1.6,         0.0,         0.0,         0.0,         0.0
"Line.UG_64625"         ,   2,       -17.0,        -1.6
"Line.UG_64626"         ,   1,        17.0,         1.6,         0.0,         0.0,         0.0,         0.0
"Line.UG_64626"         ,   2,       -17.0,        -1.6
"Line.UG_64629"         ,   1,         0.0,         0.0,         0.0,         0.0,         0.0,         0.0
"Line.UG_64629"         ,   2,        -0.0,        -0.0
"Line.UG_64820"         ,   1,         6.7,         0.8,         0.0,         0.0,         0.0,         0.0
"Line.UG_64820"         ,   2,        -6.7,        -0.8
"Line.UG_64824"         ,   1,        -3.1,        -0.2,         0.0,         0.0,         0.0,         0.0
"Line.UG_64824"         ,   2,         3.1,         0.2
"Line.UG_64826"         ,   1,        -4.0,        -0.6,         0.0,         0.0,         0.0,         0.0
"Line.UG_64826"         ,   2,         4.0,         0.6
"Line.UG_64827"         ,   1,       -51.9,        16.2,         0.0,         0.0,         0.0,         0.0
"Line.UG_64827"         ,   2,        51.9,       -16.2
"Line.UG_64836"         ,   1,        -5.3,        -0.0,         0.0,         0.0,         0.0,         0.0
"Line.UG_64836"         ,   2,         5.3,         0.0
"Line.UG_64837"         ,   1,         5.1,         0.7,         0.0,         0.0,         0.0,         0.0
"Line.UG_64837"         ,   2,        -5.1,        -0.7
"Line.UG_64839"         ,   1,       -10.0,         1.8,         0.0,         0.0,         0.0,         0.0
"Line.UG_64839"         ,   2,        10.0,        -1.8
"Line.UG_64845"         ,   1,        59.2,       -15.6,         0.0,         0.0,         0.0,         0.0
"Line.UG_64845"         ,   2,       -59.0,        15.5
"Line.UG_64855"         ,   1,        -7.3,         2.5,         0.0,         0.0,         0.0,         0.0
"Line.UG_64855"         ,   2,         7.3,        -2.5
"Line.UG_64857"         ,   1,        10.2,         4.2,         0.0,         0.0,         0.0,         0.0
"Line.UG_64857"         ,   2,       -10.2,        -4.2
"Line.UG_64858"         ,   1,     -1160.4,      -134.7,         0.0,         0.0,         0.0,         0.0
"Line.UG_64858"         ,   2,      1161.7,       135.4
"Line.UG_64862"         ,   1,      -112.3,         7.1,         0.0,         0.0,         0.0,         0.0
"Line.UG_64862"         ,   2,       112.4,        -7.1
...
"Load.BB_50011133A"     ,   1,         9.5,         1.0
"Load.BB_50015855A"     ,   1,        15.0,         1.5
"Load.BB_50026560A"     ,   1,        17.3,         1.8
"Load.BB_50026578C"     ,   1,        19.4,         1.4
"Load.BB_50149B"        ,   1,        20.2,         1.9
"Load.BB_50167B"        ,   1,        55.9,         5.4
"Load.BB_50212A"        ,   1,         7.7,         0.8
"Load.BB_50263C"        ,   1,        29.6,         2.1
"Load.BB_50266C"        ,   1,        22.5,         1.6
"Load.BB_51048013B"     ,   1,        19.0,         1.8
"Load.BB_51066669B"     ,   1,         3.9,         0.4
"Load.BB_51066701A"     ,   1,        16.2,         1.7
"Load.BB_51071429B"     ,   1,        66.6,         6.4
"Load.BB_51091905B"     ,   1,         3.1,         0.3
"Load.BB_63397C"        ,   1,        15.8,         1.1
"Load.BB_63401C"        ,   1,        17.4,         1.2
"Load.BB_63544B"        ,   1,        15.4,         1.5
"Load.BB_63825C"        ,   1,        21.2,         1.5
"Load.BB_64040A"        ,   1,        17.3,         1.8
"Load.BB_64049C"        ,   1,         4.1,         0.3
"Load.BB_64055C"        ,   1,        22.4,         1.6
"Load.BB_64059C"        ,   1,        19.9,         1.4
"Load.BB_64159A"        ,   1,         3.8,         0.4
"Load.BB_64172A"        ,   1,        10.8,         1.1
"Load.BB_64247A"        ,   1,         9.5,         1.0
"Load.BB_64254A"        ,   1,         2.6,         0.3
"Load.BB_64279A"        ,   1,        22.4,         2.3
"Load.BB_64280A"        ,   1,         3.4,         0.4
"Load.BB_64322A"        ,   1,         7.2,         0.7
"Load.BB_64469C"        ,   1,        22.3,         1.6
"Load.BB_64478C"        ,   1,        31.9,         2.3
"Load.BB_64575C"        ,   1,        20.6,         1.5
"Load.BB_64599A"        ,   1,         6.9,         0.7
"Load.BB_64599B"        ,   1,         9.0,         0.9
"Load.BB_64599C"        ,   1,         9.8,         0.7
"Load.BB_64630B"        ,   1,        17.0,         1.6
"Load.BB_64821A"        ,   1,         7.0,         0.7
"Load.BB_64829B"        ,   1,        14.6,         1.4
"Load.BB_64852B"        ,   1,        17.5,         1.7
"Load.BB_64883A"        ,   1,         0.3,         0.0
"Load.BB_64883B"        ,   1,         0.3,         0.0
"Load.BB_64883C"        ,   1,         0.4,         0.0
"Load.BB_65081A"        ,   1,         6.6,         0.7
"Load.BB_65118A"        ,   1,         6.3,         0.6
"Load.BB_65225A"        ,   1,        15.5,         1.6
"Load.BB_65226B"        ,   1,        18.5,         1.8
"Load.BB_65227A"        ,   1,        10.0,         1.0
"Load.BB_65299B"        ,   1,        23.6,         2.3
"Load.BB_65301A"        ,   1,        13.6,         1.4
"Load.BB_65302A"        ,   1,         3.0,         0.3
"Load.BB_65303B"        ,   1,         9.2,         0.9
"Load.BB_65317C"        ,   1,         4.3,         0.3
"Load.BB_65318C"        ,   1,        10.5,         0.7
"Load.BB_65321C"        ,   1,         6.3,         0.4
"Load.BB_65341C"        ,   1,        10.2,         0.7
"Load.OH_50017187B"     ,   1,        29.0,         2.8
"Load.OH_50144B"        ,   1,        28.6,         2.7
"Load.OH_50144C"        ,   1,        18.6,         1.3
"Load.OH_51042716A"     ,   1,         9.1,         0.9
"Load.OH_51209273A"     ,   1,        20.4,         2.1
"Load.OH_59846C"        ,   1,        10.5,         0.7
"Load.OH_59847B"        ,   1,         9.9,         0.9
"Load.OH_59849C"        ,   1,        24.0,         1.7
"Load.OH_63858C"        ,   1,        11.4,         0.8
"Load.OH_63859A"        ,   1,         3.9,         0.4
"Load.OH_63859B"        ,   1,         5.0,         0.5
"Load.OH_63859C"        ,   1,         5.5,         0.4
"Load.OH_64006A"        ,   1,         3.6,         0.4
"Load.OH_64007C"        ,   1,        10.2,         0.7
"Load.OH_64010C"        ,   1,        14.7,         1.0
"Load.OH_64045C"        ,   1,        34.3,         2.4
"Load.OH_64067B"        ,   1,        37.1,         3.6
"Load.OH_64069B"        ,   1,         9.3,         0.9
"Load.OH_64074A"        ,   1,        17.8,         1.8
"Load.OH_64255A"        ,   1,         6.2,         0.6
"Load.OH_64258A"        ,   1,        10.2,         1.1
"Load.OH_64262A"        ,   1,         5.0,         0.5
"Load.OH_64265A"        ,   1,         9.2,         0.9
"Load.OH_64266A"        ,   1,         8.0,         0.8
"Load.OH_64274A"        ,   1,        19.6,         2.0
"Load.OH_64275A"        ,   1,         4.1,         0.4
"Load.OH_64386B"        ,   1,        19.9,         1.9
"Load.OH_64485B"        ,   1,        15.7,         1.5
"Load.OH_64486A"        ,   1,        16.4,         1.7
"Load.OH_64487C"        ,   1,         8.0,         0.6
"Load.OH_64494A"        ,   1,         3.3,         0.3
"Load.OH_64494B"        ,   1,         4.3,         0.4
"Load.OH_64494C"        ,   1,         4.7,         0.3
"Load.OH_64495C"        ,   1,        26.6,         1.9
"Load.OH_64496C"        ,   1,        35.3,         2.5
"Load.OH_64498C"        ,   1,        12.8,         0.9
"Load.OH_64563B"        ,   1,        18.4,         1.8
"Load.OH_64564B"        ,   1,        36.8,         3.5
"Load.OH_64832B"        ,   1,        24.4,         2.3
"Load.OH_64873B"        ,   1,        19.0,         1.8
"Load.OH_65515B"        ,   1,        16.6,         1.6
"Load.HUNAKAIA"         ,   1,        38.9,         4.3
"Load.HUNAKAIB"         ,   1,        33.0,         6.1
"Load.HUNAKAIC"         ,   1,        50.5,         6.1
"Load.BLACK_PTA"        ,   1,        48.8,         7.4
"Load.BLACK_PTB"        ,   1,        22.6,         3.7
"Load.BLACK_PTC"        ,   1,         6.7,         1.0
